Version 4
SHEET 1 1556 1352
WIRE -80 496 -96 496
WIRE 32 496 -80 496
WIRE 176 496 32 496
WIRE 272 496 256 496
WIRE 576 496 528 496
WIRE 656 496 576 496
WIRE 720 496 656 496
WIRE 32 512 32 496
WIRE 656 528 656 496
WIRE -496 560 -592 560
WIRE -1888 576 -1920 576
WIRE -1744 576 -1776 576
WIRE -1920 592 -1920 576
WIRE -544 592 -544 544
WIRE 176 592 160 592
WIRE 272 592 176 592
WIRE 592 592 528 592
WIRE 720 592 720 496
WIRE -592 608 -592 560
WIRE -576 608 -592 608
WIRE 592 608 592 592
WIRE -496 624 -496 560
WIRE -496 624 -512 624
WIRE -480 624 -496 624
WIRE -832 640 -864 640
WIRE -720 640 -752 640
WIRE -608 640 -640 640
WIRE -576 640 -608 640
WIRE -512 640 -512 624
WIRE -864 656 -864 640
WIRE -720 656 -720 640
WIRE -608 656 -608 640
WIRE -480 656 -480 624
WIRE -416 672 -432 672
WIRE -1232 688 -1280 688
WIRE -1136 688 -1152 688
WIRE -1632 704 -1632 544
WIRE -80 704 -80 496
WIRE 176 704 176 672
WIRE 592 720 592 688
WIRE -512 736 -512 704
WIRE -384 736 -384 544
WIRE -1184 752 -1184 544
WIRE -480 752 -480 736
WIRE -432 752 -432 672
WIRE -432 752 -480 752
WIRE -416 752 -432 752
WIRE -1280 768 -1280 688
WIRE -1216 768 -1280 768
WIRE -336 768 -336 672
WIRE -336 768 -352 768
WIRE -288 768 -336 768
WIRE -272 768 -288 768
WIRE -176 768 -192 768
WIRE -160 768 -176 768
WIRE -1136 784 -1136 688
WIRE -1136 784 -1152 784
WIRE -1120 784 -1136 784
WIRE -1024 784 -1040 784
WIRE -416 784 -1024 784
WIRE 160 784 80 784
WIRE 176 784 160 784
WIRE 272 784 256 784
WIRE -1216 800 -1328 800
WIRE -1024 800 -1024 784
WIRE 80 800 80 784
WIRE -288 816 -288 768
WIRE -1920 864 -1920 672
WIRE -1776 864 -1776 656
WIRE 160 880 160 784
WIRE 272 880 160 880
WIRE -1024 896 -1024 864
WIRE 80 912 80 880
WIRE 160 944 160 880
WIRE -1632 960 -1632 784
WIRE -1280 960 -1280 848
WIRE -1184 960 -1184 816
WIRE -864 960 -864 736
WIRE -720 960 -720 720
WIRE -608 960 -608 720
WIRE -544 960 -544 656
WIRE -384 960 -384 800
WIRE -288 960 -288 880
WIRE 80 960 80 912
WIRE 400 960 400 944
WIRE 400 960 336 960
WIRE 336 976 336 960
WIRE -80 1072 -80 784
WIRE 32 1072 32 576
WIRE 80 1072 80 1024
WIRE 160 1072 160 1024
WIRE 336 1072 336 1040
WIRE 400 1072 400 1040
WIRE 656 1072 656 592
WIRE 720 1072 720 672
FLAG -80 1072 0
FLAG -96 496 pwr
FLAG 720 1072 0
FLAG 656 1072 0
FLAG -864 960 0
FLAG 576 496 Vload
FLAG -1632 960 0
FLAG -1632 544 Vcc12
FLAG -608 960 0
FLAG 160 1072 0
FLAG 32 1072 0
FLAG 400 1072 0
FLAG 80 1072 0
FLAG 80 912 Vmon
FLAG -1776 864 0
FLAG -1184 544 Vcc12
FLAG -1184 960 0
FLAG -1280 960 0
FLAG -1328 800 Vmon
FLAG -384 544 Vcc12
FLAG -384 960 0
FLAG -176 768 Vset
FLAG -544 544 Vcc12
FLAG -544 960 0
FLAG -720 960 0
FLAG 592 720 Vset
FLAG -1920 864 0
FLAG 176 704 0
FLAG 160 592 Vcc12
FLAG 336 1072 0
FLAG -512 736 0
FLAG -1024 896 0
FLAG -288 960 0
SYMBOL voltage -80 688 R0
WINDOW 3 13 97 Left 2
WINDOW 123 0 0 Left 2
WINDOW 39 0 0 Left 2
WINDOW 0 2 8 Left 2
SYMATTR Value PWL(0 0 1m 5)
SYMATTR InstName Vpwr
SYMBOL polcap 640 528 R0
WINDOW 3 24 56 Left 2
SYMATTR Value 100µ
SYMATTR InstName C1
SYMATTR SpiceLine V=2 Irms=2.1 Rser=0.028 Lser=0 mfg="KEMET" pn="A700V107M002ATE028" type="Al electrolytic"
SYMATTR Description Capacitor
SYMATTR Type cap
SYMBOL voltage -864 640 R0
WINDOW 123 0 0 Left 2
WINDOW 39 0 0 Left 2
WINDOW 3 23 124 VLeft 2
WINDOW 0 -8 -22 Left 2
SYMATTR Value 2.5
SYMATTR InstName Vctl
SYMBOL res -624 624 R90
WINDOW 0 0 56 VBottom 2
WINDOW 3 32 56 VTop 2
SYMATTR InstName R7
SYMATTR Value 10k
SYMATTR SpiceLine tol=1
SYMBOL cap -592 720 R180
WINDOW 0 24 56 Left 2
WINDOW 3 24 8 Left 2
SYMATTR InstName C4
SYMATTR Value 10n
SYMBOL voltage -1632 688 R0
WINDOW 123 0 0 Left 2
WINDOW 39 0 0 Left 2
WINDOW 3 18 86 Left 2
SYMATTR Value 12V
SYMATTR InstName Vctl2
SYMBOL res 704 576 R0
WINDOW 3 36 68 Left 2
SYMATTR Value 3
SYMATTR InstName Rload
SYMBOL LT3086 400 688 R0
SYMATTR InstName U4
SYMBOL cap 16 512 R0
SYMATTR Value 10µ
SYMATTR InstName C5
SYMATTR SpiceLine V=25 Irms=0 Rser=0.001 Lser=0 mfg="TDK" pn="C575OX7RIE106M" type="X7R"
SYMBOL res 384 944 R0
SYMATTR InstName R10
SYMATTR Value 1µ
SYMBOL res 144 928 R0
SYMATTR InstName R4
SYMATTR Value 390
SYMBOL cap 64 960 R0
SYMATTR InstName C6
SYMATTR Value 22n
SYMBOL res 64 784 R0
SYMATTR InstName R9
SYMATTR Value 10k
SYMBOL res 272 768 R90
WINDOW 0 0 56 VBottom 2
WINDOW 3 32 56 VTop 2
SYMATTR InstName R1
SYMATTR Value 1µ
SYMBOL res -496 640 R0
SYMATTR InstName R3
SYMATTR Value 1k
SYMBOL res 160 512 R270
WINDOW 0 32 56 VTop 2
WINDOW 3 0 56 VBottom 2
SYMATTR InstName R12
SYMATTR Value 1µ
SYMBOL voltage -1776 560 R0
WINDOW 123 0 0 Left 2
WINDOW 39 0 0 Left 2
WINDOW 3 35 81 VRight 2
WINDOW 0 -8 -22 Left 2
SYMATTR Value PWL(0 0 1m 5 9m 5 12m 0)
SYMATTR InstName Vctl1
SYMBOL opamp2 -1184 720 R0
WINDOW 3 -39 109 Left 2
SYMATTR Value LM324/NS
SYMATTR InstName U5
SYMBOL res -288 752 M90
WINDOW 0 0 56 VBottom 2
WINDOW 3 32 56 VTop 2
SYMATTR InstName R2
SYMATTR Value 1k
SYMBOL res -1296 752 R0
SYMATTR InstName R5
SYMATTR Value 1k
SYMBOL res -1136 672 R90
WINDOW 0 0 56 VBottom 2
WINDOW 3 32 56 VTop 2
SYMATTR InstName R8
SYMATTR Value 4k7
SYMBOL opamp2 -384 704 R0
WINDOW 3 -39 109 Left 2
SYMATTR Value LM324/NS
SYMATTR InstName U1
SYMBOL res 608 704 R180
WINDOW 0 36 76 Left 2
WINDOW 3 36 40 Left 2
SYMATTR InstName R14
SYMATTR Value 1µ
SYMBOL res -1136 800 R270
WINDOW 0 32 56 VTop 2
WINDOW 3 0 56 VBottom 2
SYMATTR InstName R19
SYMATTR Value 1k
SYMBOL opamp2 -544 560 R0
WINDOW 3 -39 109 Left 2
SYMATTR Value LM324/NS
SYMATTR InstName U2
SYMBOL res -736 624 R90
WINDOW 0 0 56 VBottom 2
WINDOW 3 32 56 VTop 2
SYMATTR InstName R6
SYMATTR Value 10k
SYMATTR SpiceLine tol=1
SYMBOL cap -704 720 R180
WINDOW 0 24 56 Left 2
WINDOW 3 24 8 Left 2
SYMATTR InstName C2
SYMATTR Value 100n
SYMBOL voltage -1920 576 R0
WINDOW 123 0 0 Left 2
WINDOW 39 0 0 Left 2
WINDOW 3 52 319 VLeft 2
WINDOW 0 -8 -22 Left 2
SYMATTR Value PULSE(0 5 0 0 0 26u 27u)
SYMATTR InstName Vctl3
SYMBOL res 160 576 R0
SYMATTR InstName R11
SYMATTR Value 10k
SYMBOL cap 320 976 R0
SYMATTR InstName C3
SYMATTR Value 10p
SYMBOL cap -528 640 R0
SYMATTR InstName C7
SYMATTR Value 10p
SYMBOL cap -1040 800 R0
SYMATTR InstName C8
SYMATTR Value 10p
SYMBOL cap -304 816 R0
SYMATTR InstName C9
SYMATTR Value 10p
TEXT 816 1016 Left 2 !.inc lm324.mod
TEXT 856 920 Left 2 !.tran 10m
TEXT 824 976 Left 2 !;;.step temp 25 125 10
