Version 4
SHEET 1 1556 680
WIRE -384 -64 -416 -64
WIRE -304 -64 -384 -64
WIRE -16 -64 -304 -64
WIRE 144 -64 -16 -64
WIRE 512 -64 144 -64
WIRE 784 -64 512 -64
WIRE -304 -48 -304 -64
WIRE 784 -16 784 -64
WIRE -384 0 -384 -64
WIRE 560 48 544 48
WIRE 656 48 640 48
WIRE 976 48 912 48
WIRE 1072 48 976 48
WIRE 1136 48 1072 48
WIRE 1200 48 1136 48
WIRE 1232 48 1200 48
WIRE 1136 64 1136 48
WIRE -128 80 -176 80
WIRE 32 80 -48 80
WIRE -224 112 -240 112
WIRE 624 112 -64 112
WIRE 976 112 976 48
WIRE -384 128 -384 80
WIRE 512 128 512 -64
WIRE -16 144 -16 -64
WIRE 0 144 -16 144
WIRE 352 144 96 144
WIRE 480 144 352 144
WIRE 624 144 624 112
WIRE 656 144 624 144
WIRE 928 144 912 144
WIRE 1072 144 1072 128
WIRE -240 160 -240 112
WIRE -48 160 -240 160
WIRE 576 160 544 160
WIRE 1200 160 1200 48
WIRE -240 176 -240 160
WIRE 32 176 32 80
WIRE 32 176 16 176
WIRE 480 176 32 176
WIRE -64 192 -64 112
WIRE -48 192 -64 192
WIRE 0 208 -16 208
WIRE 96 208 96 144
WIRE 112 208 96 208
WIRE 208 208 192 208
WIRE 352 208 352 144
WIRE -16 240 -16 208
WIRE 624 240 624 224
WIRE 144 256 144 -64
WIRE 704 256 688 256
WIRE 784 256 784 208
WIRE 832 256 784 256
WIRE 96 272 96 208
WIRE 112 272 96 272
WIRE 208 288 208 208
WIRE 208 288 176 288
WIRE 240 288 208 288
WIRE 832 288 832 256
WIRE -64 304 -96 304
WIRE 32 304 16 304
WIRE 112 304 32 304
WIRE 576 304 576 240
WIRE 624 304 576 304
WIRE 32 368 32 352
WIRE -384 384 -384 208
WIRE -304 384 -304 16
WIRE -240 384 -240 256
WIRE 32 384 32 368
WIRE 80 384 80 368
WIRE 144 384 144 320
WIRE 240 384 240 368
WIRE 352 384 352 272
WIRE 512 384 512 192
WIRE 688 384 688 352
WIRE 832 384 832 352
WIRE 1072 384 1072 208
WIRE 1136 384 1136 128
WIRE 1200 384 1200 240
FLAG -384 384 0
FLAG -416 -64 pwr
FLAG 1200 384 0
FLAG 1136 384 0
FLAG -304 384 0
FLAG 832 384 0
FLAG 512 384 0
FLAG -96 384 0
FLAG 688 384 0
FLAG 1232 48 Out
FLAG 832 256 LMset
FLAG -240 384 0
FLAG -16 240 0
FLAG 544 48 0
FLAG 144 384 0
FLAG 32 384 0
FLAG 624 240 0
FLAG 240 384 0
FLAG 352 384 0
FLAG 1072 384 0
SYMBOL voltage -384 112 R0
WINDOW 3 -56 100 Left 2
WINDOW 123 0 0 Left 2
WINDOW 39 0 0 Left 2
SYMATTR Value PULSE(0 7.5 0 1n 0 0 10 1)
SYMATTR InstName Vpwr
SYMBOL polcap 1120 64 R0
WINDOW 3 24 56 Left 2
SYMATTR Value 10µ
SYMATTR InstName C1
SYMATTR Description Capacitor
SYMATTR Type cap
SYMATTR SpiceLine V=25 Irms=24m Rser=5 Lser=0 mfg="Nichicon" pn="UPR1E4R7MAH" type="Al electrolytic"
SYMBOL polcap -320 -48 R0
WINDOW 3 24 56 Left 2
SYMATTR Value 4.7µ
SYMATTR InstName C2
SYMATTR Description Capacitor
SYMATTR Type cap
SYMATTR SpiceLine V=25 Irms=24m Rser=5 Lser=0 mfg="Nichicon" pn="UPR1E4R7MAH" type="Al electrolytic"
SYMBOL cap 816 288 R0
SYMATTR InstName C3
SYMATTR Value 0.1µ
SYMATTR SpiceLine V=10 Irms=10.541 Rser=0.004 Lser=0
SYMBOL res 592 144 M0
SYMATTR InstName R5
SYMATTR Value 1k
SYMBOL voltage -96 288 R0
WINDOW 123 0 0 Left 2
WINDOW 39 0 0 Left 2
WINDOW 3 25 91 Left 2
WINDOW 0 121 -5 Left 2
SYMATTR Value 5
SYMATTR InstName Vctl
SYMBOL res 800 240 R90
WINDOW 0 0 56 VBottom 2
WINDOW 3 28 52 VTop 2
SYMATTR InstName R6
SYMATTR Value 10K
SYMATTR SpiceLine tol=1 pwr=0.1
SYMBOL npn 624 256 R0
SYMATTR InstName Q1
SYMATTR Value BC547B
SYMBOL res 32 288 R90
WINDOW 0 0 56 VBottom 2
WINDOW 3 32 56 VTop 2
SYMATTR InstName R7
SYMATTR Value 10k
SYMATTR SpiceLine tol=1
SYMBOL cap 16 304 R0
SYMATTR InstName C4
SYMATTR Value 0.1µ
SYMATTR SpiceLine V=10 Irms=0 Rser=0.009 Lser=0
SYMBOL Opamps\\opamp2 512 96 R0
WINDOW 3 -57 113 Left 2
SYMATTR Value LM324/NS
SYMATTR InstName U3
SYMBOL PowerProducts\\LT3081 784 96 R0
SYMATTR InstName U2
SYMBOL EXTRA\\Misc\\pot 976 144 R90
SYMATTR InstName U4
SYMATTR Value R=5k
SYMATTR Value2 T=.75
SYMBOL res 608 128 R0
SYMATTR InstName R3
SYMATTR Value 1k
SYMATTR SpiceLine tol=1
SYMBOL Opamps\\opamp2 -16 112 R0
WINDOW 3 -37 119 Left 2
SYMATTR Value LM324/NS
SYMATTR InstName U1
SYMBOL res -256 160 R0
WINDOW 0 -23 37 Left 2
WINDOW 3 -29 73 Left 2
SYMATTR InstName R1
SYMATTR Value 1k
SYMATTR SpiceLine tol=1
SYMBOL res -32 64 R90
WINDOW 0 0 56 VBottom 2
WINDOW 3 32 56 VTop 2
SYMATTR InstName R2
SYMATTR Value 18k
SYMATTR SpiceLine tol=1
SYMBOL EXTRA\\Misc\\pot -176 112 R90
SYMATTR InstName U5
SYMATTR Value R=5k
SYMATTR Value2 T=0.38
SYMBOL cap -16 144 R0
SYMATTR InstName C6
SYMATTR Value 10n
SYMATTR SpiceLine V=10 Irms=10.541 Rser=0.004 Lser=0
SYMBOL res 656 32 R90
WINDOW 0 0 56 VBottom 2
WINDOW 3 32 56 VTop 2
SYMATTR InstName R4
SYMATTR Value 1k
SYMATTR SpiceLine tol=1
SYMBOL res 1184 144 R0
SYMATTR InstName Rload
SYMATTR Value 3
SYMBOL res -368 96 R180
WINDOW 0 36 76 Left 2
WINDOW 3 36 40 Left 2
SYMATTR InstName R13
SYMATTR Value 1
SYMBOL Opamps\\opamp2 144 224 R0
WINDOW 3 -57 113 Left 2
SYMATTR Value LM324/NS
SYMATTR InstName U7
SYMBOL res 224 272 R0
SYMATTR InstName R8
SYMATTR Value 10k
SYMBOL res 208 192 R90
WINDOW 0 0 56 VBottom 2
WINDOW 3 32 56 VTop 2
SYMATTR InstName R9
SYMATTR Value 1.2k
SYMBOL cap 336 208 R0
SYMATTR InstName C5
SYMATTR Value 10n
SYMBOL cap 1056 144 R0
SYMATTR InstName C7
SYMATTR Value 10n
SYMBOL res 1056 32 R0
SYMATTR InstName R10
SYMATTR Value 100
TEXT -528 384 Left 2 !;tran 30m
TEXT -640 352 Left 2 !.inc lm324.mod
TEXT -600 256 Left 2 !.tran 20m
TEXT -632 312 Left 2 !;;.step temp 25 125 10
