Version 4
SHEET 1 1368 680
WIRE -336 -64 -368 -64
WIRE -256 -64 -336 -64
WIRE -176 -64 -256 -64
WIRE -160 -64 -176 -64
WIRE -64 -64 -80 -64
WIRE 544 -64 -64 -64
WIRE -256 -48 -256 -64
WIRE 704 -32 384 -32
WIRE -176 -16 -176 -64
WIRE -64 -16 -64 -64
WIRE 544 -16 544 -64
WIRE 384 48 384 -32
WIRE 416 48 384 48
WIRE 704 48 704 -32
WIRE 704 48 672 48
WIRE 736 48 704 48
WIRE 896 48 736 48
WIRE 960 48 896 48
WIRE 992 48 960 48
WIRE -48 64 -64 64
WIRE 48 64 32 64
WIRE 896 64 896 48
WIRE -336 112 -336 -64
WIRE -16 112 -336 112
WIRE 256 112 -16 112
WIRE 736 112 736 48
WIRE -336 128 -336 112
WIRE 256 128 256 112
WIRE -16 144 -16 112
WIRE 160 144 64 144
WIRE 224 144 160 144
WIRE 384 144 384 48
WIRE 416 144 384 144
WIRE 688 144 672 144
WIRE -64 160 -64 64
WIRE -48 160 -64 160
WIRE 304 160 288 160
WIRE 960 160 960 48
WIRE 48 176 48 64
WIRE 48 176 16 176
WIRE 224 176 48 176
WIRE 240 176 224 176
WIRE -176 192 -176 64
WIRE -48 192 -176 192
WIRE 64 192 64 144
WIRE 304 192 304 160
WIRE -176 208 -176 192
WIRE 160 208 160 144
WIRE 464 256 448 256
WIRE 544 256 544 208
WIRE 592 256 544 256
WIRE 64 288 64 272
WIRE 304 304 304 272
WIRE 384 304 304 304
WIRE -336 384 -336 208
WIRE -256 384 -256 16
WIRE -176 384 -176 288
WIRE -16 384 -16 208
WIRE 64 384 64 368
WIRE 160 384 160 272
WIRE 256 384 256 192
WIRE 448 384 448 352
WIRE 592 384 592 320
WIRE 896 384 896 128
WIRE 960 384 960 240
FLAG -336 384 0
FLAG -176 384 0
FLAG -368 -64 pwr
FLAG 960 384 0
FLAG 896 384 0
FLAG -256 384 0
FLAG 592 384 0
FLAG 256 384 0
FLAG 64 384 0
FLAG 448 384 0
FLAG 992 48 Out
FLAG -16 384 0
FLAG 64 144 ctl
FLAG 160 384 0
FLAG 592 240 LMset
SYMBOL voltage -336 112 R0
WINDOW 3 -234 109 Left 2
WINDOW 123 0 0 Left 2
WINDOW 39 0 0 Left 2
SYMATTR Value PULSE(0 7.5 0 1u 0 10 10)
SYMATTR InstName Vpwr
SYMBOL res -176 -80 M90
WINDOW 0 0 56 VBottom 2
WINDOW 3 32 56 VTop 2
SYMATTR InstName shunt
SYMATTR Value 0.1
SYMBOL res -192 -32 R0
SYMATTR InstName R1
SYMATTR Value 1k
SYMATTR SpiceLine tol=1
SYMBOL res -192 192 R0
SYMATTR InstName R2
SYMATTR Value 47k
SYMATTR SpiceLine tol=1
SYMBOL res -80 -32 R0
WINDOW 3 34 66 Left 2
SYMATTR Value 1k
SYMATTR InstName R3
SYMATTR SpiceLine tol=1
SYMBOL res -64 48 M90
WINDOW 0 7 89 VBottom 2
WINDOW 3 28 87 VTop 2
SYMATTR InstName R4
SYMATTR Value 68k
SYMATTR SpiceLine tol=1
SYMBOL res 944 144 R0
SYMATTR InstName Rload
SYMATTR Value 2
SYMATTR SpiceLine tol=1 pwr=5
SYMBOL polcap 880 64 R0
WINDOW 3 24 56 Left 2
SYMATTR Value 4.7µ
SYMATTR InstName C1
SYMATTR Description Capacitor
SYMATTR Type cap
SYMATTR SpiceLine V=25 Irms=24m Rser=5 Lser=0 mfg="Nichicon" pn="UPR1E4R7MAH" type="Al electrolytic"
SYMBOL polcap -272 -48 R0
WINDOW 3 24 56 Left 2
SYMATTR Value 4.7µ
SYMATTR InstName C2
SYMATTR Description Capacitor
SYMATTR Type cap
SYMATTR SpiceLine V=25 Irms=24m Rser=5 Lser=0 mfg="Nichicon" pn="UPR1E4R7MAH" type="Al electrolytic"
SYMBOL cap 576 256 R0
SYMATTR InstName C3
SYMATTR Value 10n
SYMATTR SpiceLine V=10 Irms=10.541 Rser=0.004 Lser=0
SYMBOL res 288 288 M180
WINDOW 0 36 76 Left 2
WINDOW 3 36 40 Left 2
SYMATTR InstName R5
SYMATTR Value 1k
SYMBOL voltage 64 272 R0
WINDOW 123 0 0 Left 2
WINDOW 39 0 0 Left 2
WINDOW 3 -46 143 Left 2
SYMATTR InstName Vctl
SYMATTR Value PULSE(0 5 0 0 0 63u 64u)
SYMBOL res 560 240 R90
WINDOW 0 0 56 VBottom 2
WINDOW 3 28 52 VTop 2
SYMATTR InstName R6
SYMATTR Value 12K
SYMATTR SpiceLine tol=1 pwr=0.1
SYMBOL npn 384 256 R0
SYMATTR InstName Q1
SYMATTR Value BC547B
SYMBOL res 48 176 R0
SYMATTR InstName R7
SYMATTR Value 10k
SYMATTR SpiceLine tol=1
SYMBOL cap 144 208 R0
SYMATTR InstName C4
SYMATTR Value 0.1µ
SYMBOL Opamps\\opamp2 -16 112 R0
WINDOW 3 -57 113 Left 2
SYMATTR Value LM324/NS
SYMATTR InstName U1
SYMBOL Opamps\\opamp2 256 96 R0
WINDOW 3 -57 113 Left 2
SYMATTR Value LM324/NS
SYMATTR InstName U3
SYMBOL PowerProducts\\LT3081 544 96 R0
SYMATTR InstName U2
SYMBOL EXTRA\\Misc\\pot 736 144 R90
SYMATTR InstName U4
SYMATTR Value R=5k
SYMATTR Value2 T=.68
TEXT -480 384 Left 2 !;tran 30m
TEXT 592 -72 Left 2 !.inc lm324.mod
TEXT -576 408 Left 2 !.tran 20m startup
